<?xml version='1.0' encoding='UTF-8'?>
<configuration><input><net-file value="connaught_place.net.xml" /><route-files value="connaught_place.rou.xml" /></input><time><begin value="0" /><end value="3600" /><step-length value="1.0" /></time></configuration>